65
 generated by VMD
 C        -4.161880        3.410720        2.796620
 C        -3.844370        3.625010        1.661390
 C        -2.530120        3.615150        1.079650
 C        -1.901170        4.924710        0.709550
 C        -2.639570        6.133600        0.952860
 C        -2.453120        6.968500        1.791830
 C        -1.430840        7.016040        2.799480
 C        -1.810010        6.776960        4.227180
 C        -3.190770        6.628990        4.563160
 C        -3.838180        5.315900        4.943570
 C        -3.102440        4.090080        4.987420
 C        -3.326100        3.071150        3.914130
 C        -2.067640        2.378690        3.376020
 C        -1.652800        2.659810        1.901140
 C        -0.180790        2.631580        1.620130
 C         0.454040        3.952580        1.246300
 C        -0.461990        5.138280        1.200220
 C        -0.218890        6.226220        2.288260
 C         0.893310        5.947980        3.251080
 C         0.483320        5.677040        4.681930
 C        -0.990590        5.721990        4.966980
 C        -1.643910        4.364690        5.351670
 C        -0.715170        3.184380        5.387390
 C        -0.944280        2.124720        4.332150
 C         0.270620        1.406780        3.830690
 C         0.676290        1.674350        2.394280
 C         2.149170        1.647170        2.102370
 C         2.784890        2.969350        1.727890
 C         1.871650        4.161200        1.690570
 C         2.102740        5.218430        2.752800
 C         3.216650        4.956830        3.722720
 C         2.810940        4.689290        5.159130
 C         1.338140        4.716430        5.451070
 C         0.702420        3.394260        5.825530
 C         1.615480        2.202470        5.862840
 C         1.384430        1.145230        4.800610
 C         2.593830        0.415630        4.302490
 C         3.004040        0.686540        2.871670
 C         4.478150        0.641450        2.586880
 C         5.131540        1.998640        2.202050
 C         4.202640        3.179110        2.166120
 C         4.431700        4.238830        3.221400
 C         5.555060        3.984770        4.177780
 C         5.139940        3.703710        5.652540
 C         3.667890        3.732050        5.933330
 C         3.032920        2.411110        6.307210
 C         3.948710        1.225360        6.353570
 C         3.705800        0.137370        5.265590
 C         4.917810       -0.652580        4.754750
 C         5.297500       -0.413440        3.327230
 C         6.678800       -0.265490        2.992790
 C         7.326260        1.047420        2.612130
 C         6.590150        2.273170        2.566700
 C         6.813670        3.292080        3.639980
 C         7.649560        2.951460        4.757380
 C         7.331300        2.737650        5.892500
 C         6.016950        2.748250        6.474190
 C         5.387670        1.438870        6.844520
 C         6.126050        0.229840        6.601380
 C         5.940360       -0.605140        5.762420
 C        -6.504150        6.813910        2.428250
 H        -7.236400        7.251610        3.110040
 H        -5.599220        7.424750        2.426790
 H        -6.262220        5.801650        2.757520
 H        -6.920170        6.777730        1.419220
65
 generated by VMD
 C        -3.777686        3.567916        3.013832
 C        -3.401614        3.731916        1.750194
 C        -2.127689        3.748850        1.454646
 C        -1.535575        4.879128        0.990674
 C        -2.281385        5.965023        0.914998
 C        -2.053073        6.877175        1.869825
 C        -1.179232        6.551586        2.818153
 C        -1.579089        6.258530        4.037991
 C        -2.882647        6.271711        4.374951
 C        -3.401425        5.154585        4.930492
 C        -2.591804        4.089760        4.902494
 C        -2.813854        3.255233        3.859630
 C        -1.759838        2.560499        3.400735
 C        -1.369722        2.855554        2.152251
 C        -0.061184        2.826109        1.886482
 C         0.532324        3.921664        1.433370
 C        -0.270250        5.011063        1.417776
 C        -0.119003        5.872457        2.407551
 C         0.868305        5.641362        3.265440
 C         0.510181        5.459714        4.554779
 C        -0.802401        5.470758        4.819742
 C        -1.291304        4.303025        5.216797
 C        -0.491472        3.257610        5.179053
 C        -0.737281        2.300195        4.260295
 C         0.331819        1.681837        3.818486
 C         0.696981        1.942062        2.557464
 C         2.019645        1.911877        2.329229
 C         2.590931        3.039133        1.945234
 C         1.758118        4.095727        1.902244
 C         1.958462        4.964702        2.843037
 C         2.917594        4.621922        3.682259
 C         2.593819        4.480647        4.941838
 C         1.309026        4.531924        5.191958
 C         0.766567        3.405943        5.551765
 C         1.552567        2.352318        5.583124
 C         1.309764        1.409406        4.689556
 C         2.418575        0.732049        4.242920
 C         2.822110        1.050095        2.984976
 C         4.131020        1.024748        2.694950
 C         4.702326        2.149673        2.326048
 C         3.866727        3.195951        2.246219
 C         4.039295        4.107790        3.218189
 C         5.006916        3.833998        4.142856
 C         4.705275        3.776993        5.459166
 C         3.384509        3.725143        5.702202
 C         2.821422        2.546814        5.939900
 C         3.598447        1.474821        6.005100
 C         3.387738        0.536486        5.105739
 C         4.449963       -0.128252        4.620105
 C         4.815565        0.066120        3.346405
 C         6.148946        0.154645        3.181814
 C         6.767593        1.257796        2.788446
 C         5.972278        2.321378        2.792227
 C         6.116512        3.248638        3.726738
 C         7.049799        2.972165        4.625550
 C         6.699614        2.789916        5.897182
 C         5.418573        2.852969        6.172892
 C         4.878590        1.654613        6.379742
 C         5.713312        0.624016        6.327516
 C         5.428270       -0.370930        5.486897
 C        -3.240274        5.836075        2.709377
 H        -3.886135        5.258981        3.427851
 H        -3.084736        6.922998        2.997106
 H        -2.306440        5.257895        2.562507
 H        -3.664430        5.816069        1.685947
65
 generated by VMD
 C        -0.936667        3.380941        2.608927
 C        -0.311462        3.604309        1.436205
 C         1.034688        3.469107        1.380945
 C         1.864524        4.488605        1.125553
 C         1.318718        5.708024        1.033567
 C         1.261295        6.396801        2.176342
 C         2.063248        6.037768        3.169609
 C         1.545513        5.904810        4.405812
 C         0.238074        6.116784        4.549331
 C        -0.567110        5.028954        4.515744
 C         0.011538        3.797844        4.599362
 C        -0.227435        2.909524        3.605135
 C         0.769818        2.016710        3.232168
 C         1.502587        2.474214        2.166636
 C         2.831194        2.265782        2.117343
 C         3.633065        3.289138        1.886271
 C         3.034828        4.475826        1.773011
 C         3.181808        5.346308        2.810615
 C         3.926138        4.860957        3.810712
 C         3.320986        4.615067        4.980974
 C         2.006963        4.861789        5.094955
 C         1.223161        3.749472        5.170619
 C         1.822961        2.549488        5.282321
 C         1.620820        1.659617        4.257251
 C         2.691221        0.925551        3.955915
 C         3.308022        1.203050        2.792016
 C         4.635242        0.974052        2.773181
 C         5.413544        2.032097        2.626320
 C         4.822247        3.242637        2.520996
 C         4.957772        4.073114        3.534024
 C         5.740971        3.674608        4.538155
 C         5.113501        3.426648        5.696552
 C         3.806175        3.604772        5.672331
 C         3.029568        2.554990        5.820806
 C         3.627014        1.380674        5.963888
 C         3.465760        0.517695        4.956809
 C         4.518269       -0.286702        4.666295
 C         5.130454       -0.037153        3.518017
 C         6.427804       -0.271237        3.453406
 C         7.198897        0.816130        3.326713
 C         6.567162        2.003115        3.277341
 C         6.780962        2.871139        4.277631
 C         7.526979        2.396281        5.283645
 C         6.894225        2.220533        6.449759
 C         5.582227        2.416202        6.422071
 C         4.812056        1.376298        6.576130
 C         5.429874        0.194897        6.715141
 C         5.312542       -0.653387        5.678604
 C         6.315694       -1.509175        5.397636
 C         6.949347       -1.258811        4.247387
 C         8.258315       -1.441809        4.209013
 C         9.009306       -0.363885        4.018735
 C         8.384621        0.805905        3.937588
 C         8.525055        1.607264        4.991450
 C         9.291950        1.236269        6.016914
 C         8.702802        1.095345        7.207395
 C         7.374393        1.260214        7.214458
 C         6.611140        0.194539        7.355103
 C         7.147580       -1.029489        7.482904
 C         7.039523       -1.881702        6.465172
 C         1.630877        4.015427        3.267659
 H         1.623313        2.972406        3.598061
 H         1.164811        4.620595        4.043252
 H         2.720405        4.173548        3.347021
 H         1.149332        4.474108        2.417556
65
 generated by VMD
 C        -0.574436        3.172935        2.519402
 C         0.051613        3.337095        1.355365
 C         1.376256        3.176316        1.364463
 C         2.102883        4.292741        1.326055
 C         1.378977        5.394794        1.334326
 C         1.636472        6.299043        2.268841
 C         2.452669        5.974278        3.278677
 C         1.877143        5.735314        4.447567
 C         0.581271        6.005778        4.553963
 C        -0.174496        4.935777        4.456497
 C         0.395782        3.742416        4.546449
 C         0.198694        2.863851        3.564999
 C         1.162957        1.999088        3.319402
 C         1.804571        2.164675        2.116632
 C         3.130897        1.983249        2.093359
 C         3.922453        3.116577        2.000601
 C         3.285758        4.302710        1.960514
 C         3.502649        5.205446        2.940346
 C         4.287320        4.810718        3.952645
 C         3.671183        4.590208        5.137709
 C         2.339450        4.735169        5.159700
 C         1.506005        3.676511        5.264454
 C         2.063083        2.450345        5.355043
 C         1.849501        1.580170        4.367399
 C         2.858437        0.737218        4.056208
 C         3.528488        1.012342        2.908101
 C         4.856575        0.876237        2.934632
 C         5.650225        1.955573        2.774323
 C         5.060484        3.130125        2.694240
 C         5.363622        4.062614        3.628297
 C         6.043858        3.546834        4.651372
 C         5.397778        3.286500        5.778293
 C         4.111078        3.519594        5.776152
 C         3.299807        2.455033        5.863132
 C         3.875181        1.269908        5.985756
 C         3.632763        0.318443        5.078307
 C         4.698020       -0.442437        4.748373
 C         5.345911       -0.142881        3.623858
 C         6.652407       -0.337856        3.563997
 C         7.446561        0.721549        3.450007
 C         6.846097        1.908898        3.327506
 C         7.046718        2.739292        4.335755
 C         7.742854        2.258342        5.362186
 C         7.143592        2.062944        6.530169
 C         5.838953        2.259946        6.509214
 C         5.022771        1.207393        6.635530
 C         5.604868       -0.000693        6.784416
 C         5.505416       -0.819536        5.744436
 C         6.515403       -1.640007        5.447097
 C         7.126772       -1.376103        4.290205
 C         8.440689       -1.604423        4.172636
 C         9.218908       -0.519100        4.170554
 C         8.616267        0.657826        4.097966
 C         8.786326        1.489576        5.117797
 C         9.545303        1.149280        6.146311
 C         8.896447        0.858408        7.283175
 C         7.568192        1.055769        7.288487
 C         6.765756        0.014617        7.442301
 C         7.357202       -1.158198        7.532842
 C         7.258977       -1.994500        6.497593
 C         3.344599        2.911677        3.552113
 H         3.385216        1.957066        4.034291
 H         2.939009        3.411818        4.458338
 H         4.307140        3.256390        3.706832
 H         2.601542        3.211878        2.780849
65
 generated by VMD
 C        -0.310440        3.137608        2.498761
 C         0.277903        3.080444        1.319504
 C         1.603725        3.022576        1.344911
 C         2.279160        4.205502        1.384360
 C         1.641612        5.371738        1.410303
 C         2.039535        6.311068        2.271463
 C         2.768719        5.907551        3.287215
 C         2.125648        5.618429        4.383748
 C         0.832372        5.874957        4.477859
 C         0.051999        4.812206        4.557802
 C         0.589330        3.600369        4.589110
 C         0.471061        2.807578        3.534502
 C         1.517526        2.006654        3.339350
 C         2.086434        2.084603        2.137532
 C         3.418489        1.890639        2.072985
 C         4.135573        3.038738        2.063777
 C         3.453149        4.187605        2.032535
 C         3.723046        5.045218        3.015291
 C         4.526535        4.676560        4.031666
 C         3.881345        4.427041        5.177381
 C         2.581708        4.587277        5.096715
 C         1.758494        3.543656        5.264172
 C         2.273407        2.324886        5.435752
 C         2.125278        1.462879        4.394048
 C         3.214252        0.773435        4.132683
 C         3.884686        0.975833        2.962383
 C         5.177739        0.737299        2.925114
 C         5.953444        1.808118        2.848350
 C         5.310657        2.978271        2.704056
 C         5.537482        3.865463        3.690738
 C         6.288749        3.428777        4.716238
 C         5.576910        3.086365        5.788090
 C         4.275500        3.344348        5.843472
 C         3.442378        2.322425        6.118303
 C         4.031448        1.088511        6.222600
 C         3.874757        0.235386        5.156257
 C         4.926983       -0.542671        4.814994
 C         5.600430       -0.274136        3.682626
 C         6.914331       -0.487526        3.720680
 C         7.685640        0.578296        3.684902
 C         7.139798        1.774353        3.476922
 C         7.346053        2.663258        4.452123
 C         8.076342        2.216803        5.458502
 C         7.406417        1.944951        6.570178
 C         6.081076        2.101116        6.543925
 C         5.280654        1.041103        6.725713
 C         5.837878       -0.155262        6.826653
 C         5.692990       -0.990074        5.820095
 C         6.691929       -1.812526        5.536935
 C         7.323112       -1.534898        4.406008
 C         8.629257       -1.785946        4.331502
 C         9.412768       -0.705481        4.195172
 C         8.865908        0.514327        4.215740
 C         9.103848        1.369227        5.181238
 C         9.799643        0.875763        6.211975
 C         9.140912        0.702452        7.339177
 C         7.846541        0.892083        7.289456
 C         7.007738       -0.154192        7.458009
 C         7.584016       -1.341884        7.592114
 C         7.461226       -2.201081        6.585251
 C         3.752028        2.563372        4.383070
 H         4.063032        1.651983        4.868826
 H         3.022525        3.343016        4.458110
 H         4.681690        3.058311        4.247226
 H         3.321061        2.312066        3.429705
65
 generated by VMD
 C         0.546943        2.673147        2.491836
 C         1.274037        3.005078        1.399424
 C         2.604366        2.842725        1.546121
 C         3.465276        3.896320        1.482957
 C         2.880646        5.108478        1.496032
 C         3.185436        5.952553        2.474535
 C         3.743398        5.418759        3.533916
 C         2.943643        5.122425        4.563126
 C         1.650733        5.406616        4.438460
 C         0.792802        4.409116        4.384851
 C         1.314545        3.215507        4.624820
 C         1.248382        2.390186        3.603025
 C         2.284392        1.605694        3.424349
 C         2.973728        1.814728        2.324674
 C         4.267879        1.506905        2.357643
 C         5.116332        2.537274        2.361084
 C         4.581603        3.750117        2.217798
 C         4.720248        4.556252        3.285756
 C         5.246515        3.947816        4.353074
 C         4.480939        3.742411        5.427216
 C         3.228334        4.126007        5.389785
 C         2.378792        3.128415        5.370398
 C         2.966687        1.949020        5.516854
 C         2.940465        1.156151        4.478446
 C         3.926266        0.304521        4.287352
 C         4.640796        0.499238        3.153646
 C         5.935460        0.143469        3.054057
 C         6.785639        1.209998        3.054996
 C         6.229396        2.425556        3.101461
 C         6.323853        3.220044        4.155578
 C         6.939385        2.742864        5.228765
 C         6.177127        2.606476        6.383767
 C         4.844271        2.848120        6.335902
 C         4.007798        1.808403        6.339197
 C         4.562088        0.577308        6.459938
 C         4.535331       -0.210516        5.360589
 C         5.582602       -0.963504        5.034703
 C         6.253310       -0.854312        3.867314
 C         7.529225       -1.138178        3.971008
 C         8.372872       -0.133388        3.952750
 C         7.854018        1.080948        3.837459
 C         7.881610        1.823732        4.960355
 C         8.505764        1.303569        6.016220
 C         7.845409        1.310033        7.191560
 C         6.547572        1.593559        7.158915
 C         5.705518        0.543548        7.189960
 C         6.306209       -0.615549        7.179241
 C         6.324774       -1.368943        6.084131
 C         7.324588       -2.235716        5.893035
 C         7.889582       -2.201524        4.701327
 C         9.194538       -2.507041        4.618878
 C         9.997055       -1.493293        4.611660
 C         9.463289       -0.288874        4.686559
 C         9.480567        0.413438        5.805447
 C         9.990435       -0.160816        6.867508
 C         9.434665        0.038485        8.061205
 C         8.155747        0.338299        8.050562
 C         7.333849       -0.746437        8.048344
 C         7.919247       -1.965885        8.114096
 C         8.006456       -2.657021        6.964676
 C         5.615528        1.485700        5.109708
 H         6.264093        1.118847        5.904754
 H         4.522180        1.300719        5.131996
 H         5.471632        2.578969        5.151144
 H         6.023798        1.075795        4.218585
65
 generated by VMD
 C         3.040509        2.942332        2.497669
 C         4.193868        2.814360        1.845602
 C         5.082796        2.006231        2.387691
 C         6.161895        2.581084        2.898957
 C         6.244858        3.904196        2.788745
 C         6.056473        4.610038        3.927071
 C         5.922310        3.892392        5.052209
 C         4.768728        4.007329        5.724771
 C         3.820877        4.814582        5.272746
 C         2.747429        4.205681        4.783103
 C         2.783924        2.889757        4.784856
 C         2.823859        2.213048        3.613762
 C         3.428421        1.014643        3.640699
 C         4.598351        0.903678        3.001436
 C         5.485087        0.058785        3.538521
 C         6.550176        0.674495        4.110094
 C         6.657317        2.021729        3.998143
 C         6.550840        2.708824        5.131354
 C         6.439642        1.966299        6.244257
 C         5.306311        2.100693        6.922071
 C         4.380085        2.886107        6.368998
 C         3.292286        2.313878        5.872085
 C         3.223939        0.988933        5.898411
 C         3.341866        0.298909        4.764323
 C         3.932867       -0.906675        4.816855
 C         5.024423       -1.073659        4.087297
 C         5.951646       -1.867046        4.625095
 C         6.984396       -1.247116        5.162292
 C         7.109376        0.092783        5.161733
 C         7.045410        0.759914        6.304201
 C         6.944065        0.050866        7.416524
 C         5.763796        0.137423        8.040962
 C         4.896383        0.951801        7.459994
 C         3.750130        0.431425        7.015293
 C         3.816109       -0.882591        7.048008
 C         3.888501       -1.599700        5.941988
 C         4.330651       -2.862091        5.927276
 C         5.486334       -2.987133        5.248881
 C         6.480682       -3.722400        5.823858
 C         7.609787       -3.132317        6.257677
 C         7.540375       -1.821139        6.244445
 C         7.560463       -1.115796        7.415547
 C         7.489731       -1.741365        8.581830
 C         6.258739       -1.700454        9.253696
 C         5.339851       -0.955641        8.683084
 C         4.235932       -1.472740        8.156050
 C         4.110572       -2.799930        8.195583
 C         4.156744       -3.534473        7.068574
 C         4.841943       -4.673636        7.197092
 C         6.042293       -4.671135        6.633103
 C         7.017201       -5.508393        6.976472
 C         8.180140       -4.972942        7.381308
 C         8.279778       -3.610002        7.290846
 C         8.167101       -2.925853        8.501646
 C         7.914436       -3.682839        9.564087
 C         6.665482       -3.770275        9.995611
 C         5.778616       -2.900173        9.613520
 C         4.528706       -3.318503        9.359884
 C         4.489207       -4.642778        9.447270
 C         4.788751       -5.335811        8.340544
 C         6.129365       -3.069317        8.101671
 H         5.502094       -3.884397        8.504845
 H         5.813203       -3.412923        7.139747
 H         6.232444       -2.044153        7.820462
 H         7.008116       -3.693854        8.158875
65
 generated by VMD
 C         3.025174        2.963980        2.570687
 C         4.119793        2.764637        1.844861
 C         5.054036        1.963770        2.362247
 C         6.090710        2.575896        2.971689
 C         6.206780        3.912846        2.946661
 C         6.148719        4.584789        4.107207
 C         5.997879        3.840017        5.228927
 C         4.857150        3.928965        5.930985
 C         3.950920        4.748645        5.434590
 C         2.871300        4.201146        4.864031
 C         2.709012        2.867411        4.858423
 C         2.859746        2.229825        3.685381
 C         3.449806        1.046220        3.705543
 C         4.605120        0.891376        3.055850
 C         5.477791        0.077828        3.673581
 C         6.586627        0.647161        4.133107
 C         6.608826        1.982863        4.055006
 C         6.569348        2.620613        5.223423
 C         6.441370        1.911220        6.350255
 C         5.274106        2.005689        6.977968
 C         4.359978        2.800637        6.459308
 C         3.236351        2.262738        5.929497
 C         3.205010        0.948404        5.943525
 C         3.254038        0.289793        4.798569
 C         3.811794       -0.938822        4.887747
 C         5.003071       -0.994798        4.328493
 C         5.917351       -1.854848        4.806125
 C         6.998338       -1.292424        5.345108
 C         7.133710        0.054033        5.231274
 C         7.050014        0.728621        6.416000
 C         6.873124       -0.019814        7.507890
 C         5.721207        0.126896        8.140412
 C         4.840653        0.908196        7.569917
 C         3.782030        0.347031        6.987828
 C         3.668378       -0.957742        7.119578
 C         3.661022       -1.670579        5.998703
 C         4.293285       -2.840112        5.993569
 C         5.436515       -2.973343        5.351582
 C         6.335498       -3.760143        5.948246
 C         7.376433       -3.174244        6.503485
 C         7.512081       -1.854863        6.396078
 C         7.548804       -1.147178        7.497622
 C         7.370634       -1.901124        8.577450
 C         6.149890       -1.896769        9.155005
 C         5.235978       -0.918292        8.790563
 C         4.236776       -1.496069        8.176073
 C         4.232658       -2.818455        8.203403
 C         4.164593       -3.524745        7.107313
 C         4.626033       -4.774493        7.134263
 C         5.835608       -4.851624        6.602663
 C         6.755490       -5.731297        6.975146
 C         7.912149       -5.163488        7.456110
 C         7.969227       -3.829613        7.488514
 C         7.972956       -3.071768        8.588107
 C         7.878429       -3.682472        9.737721
 C         6.644197       -4.042570       10.002030
 C         5.759821       -3.089713        9.623154
 C         4.510677       -3.407972        9.318849
 C         4.139448       -4.716492        9.350302
 C         4.218717       -5.429208        8.240586
 C         6.156650       -5.281524        9.030222
 H         5.437601       -4.812947        9.682018
 H         5.726661       -6.120565        8.551233
 H         6.281090       -4.646039        8.144392
 H         7.232996       -5.519716        9.660069
65
 generated by VMD
 C         2.931414        2.904923        2.576718
 C         4.118155        2.784927        1.954621
 C         5.044444        1.968654        2.562182
 C         6.118764        2.551131        3.122623
 C         6.189717        3.894326        3.031450
 C         6.196042        4.548855        4.188280
 C         6.022115        3.829146        5.316288
 C         4.874413        3.977672        5.989480
 C         3.954056        4.792135        5.422080
 C         2.871480        4.247369        4.865788
 C         2.784577        2.925701        4.885959
 C         2.794311        2.240668        3.731674
 C         3.406478        1.044563        3.812572
 C         4.558581        0.896397        3.185659
 C         5.474921        0.075700        3.639470
 C         6.552351        0.601798        4.192217
 C         6.646814        1.935297        4.184922
 C         6.579789        2.604661        5.340900
 C         6.489851        1.883688        6.461087
 C         5.298491        1.999870        7.089907
 C         4.410366        2.882279        6.563377
 C         3.338641        2.354168        5.960826
 C         3.299578        1.046122        6.041770
 C         3.254060        0.358052        4.920449
 C         3.785193       -0.847499        4.861381
 C         4.983080       -0.991551        4.235752
 C         5.846300       -1.847327        4.737045
 C         6.939382       -1.352752        5.276883
 C         7.055188       -0.016461        5.257445
 C         7.056906        0.674516        6.412630
 C         6.863643       -0.108419        7.464151
 C         5.700309       -0.078113        8.069323
 C         4.837938        0.887561        7.687296
 C         3.728199        0.400463        7.103239
 C         3.469932       -0.942984        7.100822
 C         3.524861       -1.582978        5.951305
 C         4.171795       -2.742158        6.017964
 C         5.341802       -2.842972        5.427568
 C         6.149680       -3.736100        5.957342
 C         7.272961       -3.218364        6.491380
 C         7.473348       -1.935492        6.338556
 C         7.445254       -1.291848        7.485268
 C         7.321362       -2.059890        8.544808
 C         6.101943       -2.123332        9.040482
 C         5.265966       -1.226144        8.528357
 C         4.088157       -1.614360        8.058209
 C         3.838368       -2.926187        8.154534
 C         3.798141       -3.571936        6.986614
 C         4.310363       -4.804290        6.874692
 C         5.584486       -4.848980        6.486191
 C         6.427409       -5.646271        7.137888
 C         7.506419       -5.115405        7.711119
 C         7.919627       -3.860435        7.484793
 C         7.955687       -3.197845        8.584765
 C         7.767303       -3.940370        9.681996
 C         6.501631       -4.182529        9.985000
 C         5.618424       -3.315452        9.453757
 C         4.335328       -3.570335        9.230323
 C         3.965999       -4.827175        9.133432
 C         4.075681       -5.519929        7.970386
 C         5.291563       -6.448794        9.671522
 H         4.470317       -5.866843        9.987400
 H         4.654572       -7.440566        9.369967
 H         5.298585       -6.106150        8.645768
 H         6.459266       -6.443867        9.683255
65

C         2.93141        2.90492        2.57672
C         4.11815        2.78493        1.95462
C         5.04444        1.96865        2.56218
C         6.11876        2.55113        3.12262
C         6.18972        3.89433        3.03145
C         6.19604        4.54885        4.18828
C         6.02212        3.82915        5.31629
C         4.87441        3.97767        5.98948
C         3.95406        4.79214        5.42208
C         2.87148        4.24737        4.86579
C         2.78458        2.92570        4.88596
C         2.79431        2.24067        3.73167
C         3.40648        1.04456        3.81257
C         4.55858        0.89640        3.18566
C         5.47492        0.07570        3.63947
C         6.55235        0.60180        4.19222
C         6.64681        1.93530        4.18492
C         6.57979        2.60466        5.34090
C         6.48985        1.88369        6.46109
C         5.29849        1.99987        7.08991
C         4.41037        2.88228        6.56338
C         3.33864        2.35417        5.96083
C         3.29958        1.04612        6.04177
C         3.25406        0.35805        4.92045
C         3.78519       -0.84750        4.86138
C         4.98308       -0.99155        4.23575
C         5.84630       -1.84733        4.73705
C         6.93938       -1.35275        5.27688
C         7.05519       -0.01646        5.25744
C         7.05691        0.67452        6.41263
C         6.86364       -0.10842        7.46415
C         5.70031       -0.07811        8.06932
C         4.83794        0.88756        7.68730
C         3.72820        0.40046        7.10324
C         3.46993       -0.94298        7.10082
C         3.52486       -1.58298        5.95130
C         4.17180       -2.74216        6.01796
C         5.34180       -2.84297        5.42757
C         6.14968       -3.73610        5.95734
C         7.27296       -3.21836        6.49138
C         7.47335       -1.93549        6.33856
C         7.44525       -1.29185        7.48527
C         7.32136       -2.05989        8.54481
C         6.10194       -2.12333        9.04048
C         5.26597       -1.22614        8.52836
C         4.08816       -1.61436        8.05821
C         3.83837       -2.92619        8.15453
C         3.79814       -3.57194        6.98661
C         4.31036       -4.80429        6.87469
C         5.58449       -4.84898        6.48619
C         6.42741       -5.64627        7.13789
C         7.50642       -5.11540        7.71112
C         7.91963       -3.86043        7.48479
C         7.95569       -3.19785        8.58477
C         7.76730       -3.94037        9.68200
C         6.50163       -4.18253        9.98500
C         5.61842       -3.31545        9.45376
C         4.33533       -3.57034        9.23032
C         3.96600       -4.82718        9.13343
C         4.07568       -5.51993        7.97039
C         5.14415       -7.90706        9.56034
H         4.32290       -7.32511        9.87622
H         4.50716       -8.89883        9.25879
H         5.15117       -7.56441        8.53459
H         6.31185       -7.90213        9.57208


