65

C         -4.16188        3.41072        2.79662
C         -3.84437        3.62501        1.66139
C         -2.53012        3.61515        1.07965
C         -1.90117        4.92471        0.70955
C         -2.63957        6.13360        0.95286
C         -2.45312        6.96850        1.79183
C         -1.43084        7.01604        2.79948
C         -1.81001        6.77696        4.22718
C         -3.19077        6.62899        4.56316
C         -3.83818        5.31590        4.94357
C         -3.10244        4.09008        4.98742
C         -3.32610        3.07115        3.91413
C         -2.06764        2.37869        3.37602
C         -1.65280        2.65981        1.90114
C         -0.18079        2.63158        1.62013
C          0.45404        3.95258        1.24630
C         -0.46199        5.13828        1.20022
C         -0.21889        6.22622        2.28826
C          0.89331        5.94798        3.25108
C          0.48332        5.67704        4.68193
C         -0.99059        5.72199        4.96698
C         -1.64391        4.36469        5.35167
C         -0.71517        3.18438        5.38739
C         -0.94428        2.12472        4.33215
C          0.27062        1.40678        3.83069
C          0.67629        1.67435        2.39428
C          2.14917        1.64717        2.10237
C          2.78489        2.96935        1.72789
C          1.87165        4.16120        1.69057
C          2.10274        5.21843        2.75280
C          3.21665        4.95683        3.72272
C          2.81094        4.68929        5.15913
C          1.33814        4.71643        5.45107
C          0.70242        3.39426        5.82553
C          1.61548        2.20247        5.86284
C          1.38443        1.14523        4.80061
C          2.59383        0.41563        4.30249
C          3.00404        0.68654        2.87167
C          4.47815        0.64145        2.58688
C          5.13154        1.99864        2.20205
C          4.20264        3.17911        2.16612
C          4.43170        4.23883        3.22140
C          5.55506        3.98477        4.17778
C          5.13994        3.70371        5.65254
C          3.66789        3.73205        5.93333
C          3.03292        2.41111        6.30721
C          3.94871        1.22536        6.35357
C          3.70580        0.13737        5.26559
C          4.91781       -0.65258        4.75475
C          5.29750       -0.41344        3.32723
C          6.67880       -0.26549        2.99279
C          7.32626        1.04742        2.61213
C          6.59015        2.27317        2.56670
C          6.81367        3.29208        3.63998
C          7.64956        2.95146        4.75738
C          7.33130        2.73765        5.89250
C          6.01695        2.74825        6.47419
C          5.38767        1.43887        6.84452
C          6.12605        0.22984        6.60138
C          5.94036       -0.60514        5.76242
C        -13.43540        9.93525        0.64237
H        -14.16765       10.37295        1.32416
H        -12.53047       10.54609        0.64091
H        -13.19347        8.92299        0.97164
H        -13.85142        9.89907       -0.36666
65

C         -4.16188        3.41072        2.79662
C         -3.84437        3.62501        1.66139
C         -2.53012        3.61515        1.07965
C         -1.90117        4.92471        0.70955
C         -2.63957        6.13360        0.95286
C         -2.45312        6.96850        1.79183
C         -1.43084        7.01604        2.79948
C         -1.81001        6.77696        4.22718
C         -3.19077        6.62899        4.56316
C         -3.83818        5.31590        4.94357
C         -3.10244        4.09008        4.98742
C         -3.32610        3.07115        3.91413
C         -2.06764        2.37869        3.37602
C         -1.65280        2.65981        1.90114
C         -0.18079        2.63158        1.62013
C          0.45404        3.95258        1.24630
C         -0.46199        5.13828        1.20022
C         -0.21889        6.22622        2.28826
C          0.89331        5.94798        3.25108
C          0.48332        5.67704        4.68193
C         -0.99059        5.72199        4.96698
C         -1.64391        4.36469        5.35167
C         -0.71517        3.18438        5.38739
C         -0.94428        2.12472        4.33215
C          0.27062        1.40678        3.83069
C          0.67629        1.67435        2.39428
C          2.14917        1.64717        2.10237
C          2.78489        2.96935        1.72789
C          1.87165        4.16120        1.69057
C          2.10274        5.21843        2.75280
C          3.21665        4.95683        3.72272
C          2.81094        4.68929        5.15913
C          1.33814        4.71643        5.45107
C          0.70242        3.39426        5.82553
C          1.61548        2.20247        5.86284
C          1.38443        1.14523        4.80061
C          2.59383        0.41563        4.30249
C          3.00404        0.68654        2.87167
C          4.47815        0.64145        2.58688
C          5.13154        1.99864        2.20205
C          4.20264        3.17911        2.16612
C          4.43170        4.23883        3.22140
C          5.55506        3.98477        4.17778
C          5.13994        3.70371        5.65254
C          3.66789        3.73205        5.93333
C          3.03292        2.41111        6.30721
C          3.94871        1.22536        6.35357
C          3.70580        0.13737        5.26559
C          4.91781       -0.65258        4.75475
C          5.29750       -0.41344        3.32723
C          6.67880       -0.26549        2.99279
C          7.32626        1.04742        2.61213
C          6.59015        2.27317        2.56670
C          6.81367        3.29208        3.63998
C          7.64956        2.95146        4.75738
C          7.33130        2.73765        5.89250
C          6.01695        2.74825        6.47419
C          5.38767        1.43887        6.84452
C          6.12605        0.22984        6.60138
C          5.94036       -0.60514        5.76242
C         -6.50415        6.81391        2.42825
H         -7.23640        7.25161        3.11004
H         -5.59922        7.42475        2.42679
H         -6.26222        5.80165        2.75752
H         -6.92017        6.77773        1.41922
65

C         -3.77769        3.56792        3.01383
C         -3.40161        3.73192        1.75019
C         -2.12769        3.74885        1.45465
C         -1.53557        4.87913        0.99067
C         -2.28139        5.96502        0.91500
C         -2.05307        6.87718        1.86983
C         -1.17923        6.55159        2.81815
C         -1.57909        6.25853        4.03799
C         -2.88265        6.27171        4.37495
C         -3.40143        5.15458        4.93049
C         -2.59180        4.08976        4.90249
C         -2.81385        3.25523        3.85963
C         -1.75984        2.56050        3.40074
C         -1.36972        2.85555        2.15225
C         -0.06118        2.82611        1.88648
C          0.53232        3.92166        1.43337
C         -0.27025        5.01106        1.41778
C         -0.11900        5.87246        2.40755
C          0.86830        5.64136        3.26544
C          0.51018        5.45971        4.55478
C         -0.80240        5.47076        4.81974
C         -1.29130        4.30302        5.21680
C         -0.49147        3.25761        5.17905
C         -0.73728        2.30019        4.26030
C          0.33182        1.68184        3.81849
C          0.69698        1.94206        2.55746
C          2.01965        1.91188        2.32923
C          2.59093        3.03913        1.94523
C          1.75812        4.09573        1.90224
C          1.95846        4.96470        2.84304
C          2.91759        4.62192        3.68226
C          2.59382        4.48065        4.94184
C          1.30903        4.53192        5.19196
C          0.76657        3.40594        5.55176
C          1.55257        2.35232        5.58312
C          1.30976        1.40941        4.68956
C          2.41858        0.73205        4.24292
C          2.82211        1.05010        2.98498
C          4.13102        1.02475        2.69495
C          4.70233        2.14967        2.32605
C          3.86673        3.19595        2.24622
C          4.03930        4.10779        3.21819
C          5.00692        3.83400        4.14286
C          4.70528        3.77699        5.45917
C          3.38451        3.72514        5.70220
C          2.82142        2.54681        5.93990
C          3.59845        1.47482        6.00510
C          3.38774        0.53649        5.10574
C          4.44996       -0.12825        4.62010
C          4.81557        0.06612        3.34640
C          6.14895        0.15465        3.18181
C          6.76759        1.25780        2.78845
C          5.97228        2.32138        2.79223
C          6.11651        3.24864        3.72674
C          7.04980        2.97216        4.62555
C          6.69961        2.78992        5.89718
C          5.41857        2.85297        6.17289
C          4.87859        1.65461        6.37974
C          5.71331        0.62402        6.32752
C          5.42827       -0.37093        5.48690
C         -3.24027        5.83608        2.70938
H         -3.88613        5.25898        3.42785
H         -3.08474        6.92300        2.99711
H         -2.30644        5.25790        2.56251
H         -3.66443        5.81607        1.68595
65

C         -0.93667        3.38094        2.60893
C         -0.31146        3.60431        1.43620
C          1.03469        3.46911        1.38095
C          1.86452        4.48860        1.12555
C          1.31872        5.70802        1.03357
C          1.26130        6.39680        2.17634
C          2.06325        6.03777        3.16961
C          1.54551        5.90481        4.40581
C          0.23807        6.11678        4.54933
C         -0.56711        5.02895        4.51574
C          0.01154        3.79784        4.59936
C         -0.22743        2.90952        3.60514
C          0.76982        2.01671        3.23217
C          1.50259        2.47421        2.16664
C          2.83119        2.26578        2.11734
C          3.63307        3.28914        1.88627
C          3.03483        4.47583        1.77301
C          3.18181        5.34631        2.81061
C          3.92614        4.86096        3.81071
C          3.32099        4.61507        4.98097
C          2.00696        4.86179        5.09495
C          1.22316        3.74947        5.17062
C          1.82296        2.54949        5.28232
C          1.62082        1.65962        4.25725
C          2.69122        0.92555        3.95592
C          3.30802        1.20305        2.79202
C          4.63524        0.97405        2.77318
C          5.41354        2.03210        2.62632
C          4.82225        3.24264        2.52100
C          4.95777        4.07311        3.53402
C          5.74097        3.67461        4.53815
C          5.11350        3.42665        5.69655
C          3.80618        3.60477        5.67233
C          3.02957        2.55499        5.82081
C          3.62701        1.38067        5.96389
C          3.46576        0.51770        4.95681
C          4.51827       -0.28670        4.66629
C          5.13045       -0.03715        3.51802
C          6.42780       -0.27124        3.45341
C          7.19890        0.81613        3.32671
C          6.56716        2.00312        3.27734
C          6.78096        2.87114        4.27763
C          7.52698        2.39628        5.28364
C          6.89422        2.22053        6.44976
C          5.58223        2.41620        6.42207
C          4.81206        1.37630        6.57613
C          5.42987        0.19490        6.71514
C          5.31254       -0.65339        5.67860
C          6.31569       -1.50917        5.39764
C          6.94935       -1.25881        4.24739
C          8.25831       -1.44181        4.20901
C          9.00931       -0.36389        4.01874
C          8.38462        0.80590        3.93759
C          8.52506        1.60726        4.99145
C          9.29195        1.23627        6.01691
C          8.70280        1.09535        7.20739
C          7.37439        1.26021        7.21446
C          6.61114        0.19454        7.35510
C          7.14758       -1.02949        7.48290
C          7.03952       -1.88170        6.46517
C          1.63088        4.01543        3.26766
H          1.62331        2.97241        3.59806
H          1.16481        4.62059        4.04325
H          2.72040        4.17355        3.34702
H          1.14933        4.47411        2.41756
65

C         -0.57444        3.17293        2.51940
C          0.05161        3.33710        1.35536
C          1.37626        3.17632        1.36446
C          2.10288        4.29274        1.32605
C          1.37898        5.39479        1.33433
C          1.63647        6.29904        2.26884
C          2.45267        5.97428        3.27868
C          1.87714        5.73531        4.44757
C          0.58127        6.00578        4.55396
C         -0.17450        4.93578        4.45650
C          0.39578        3.74242        4.54645
C          0.19869        2.86385        3.56500
C          1.16296        1.99909        3.31940
C          1.80457        2.16467        2.11663
C          3.13090        1.98325        2.09336
C          3.92245        3.11658        2.00060
C          3.28576        4.30271        1.96051
C          3.50265        5.20545        2.94035
C          4.28732        4.81072        3.95264
C          3.67118        4.59021        5.13771
C          2.33945        4.73517        5.15970
C          1.50601        3.67651        5.26445
C          2.06308        2.45034        5.35504
C          1.84950        1.58017        4.36740
C          2.85844        0.73722        4.05621
C          3.52849        1.01234        2.90810
C          4.85658        0.87624        2.93463
C          5.65022        1.95557        2.77432
C          5.06048        3.13013        2.69424
C          5.36362        4.06261        3.62830
C          6.04386        3.54683        4.65137
C          5.39778        3.28650        5.77829
C          4.11108        3.51959        5.77615
C          3.29981        2.45503        5.86313
C          3.87518        1.26991        5.98576
C          3.63276        0.31844        5.07831
C          4.69802       -0.44244        4.74837
C          5.34591       -0.14288        3.62386
C          6.65241       -0.33786        3.56400
C          7.44656        0.72155        3.45001
C          6.84610        1.90890        3.32751
C          7.04672        2.73929        4.33575
C          7.74285        2.25834        5.36219
C          7.14359        2.06294        6.53017
C          5.83895        2.25995        6.50921
C          5.02277        1.20739        6.63553
C          5.60487       -0.00069        6.78442
C          5.50542       -0.81954        5.74444
C          6.51540       -1.64001        5.44710
C          7.12677       -1.37610        4.29021
C          8.44069       -1.60442        4.17264
C          9.21891       -0.51910        4.17055
C          8.61627        0.65783        4.09797
C          8.78633        1.48958        5.11780
C          9.54530        1.14928        6.14631
C          8.89645        0.85841        7.28317
C          7.56819        1.05577        7.28849
C          6.76576        0.01462        7.44230
C          7.35720       -1.15820        7.53284
C          7.25898       -1.99450        6.49759
C          3.34460        2.91168        3.55211
H          3.38522        1.95707        4.03429
H          2.93901        3.41182        4.45834
H          4.30714        3.25639        3.70683
H          2.60154        3.21188        2.78085
65

C         -0.31044        3.13761        2.49876
C          0.27790        3.08044        1.31950
C          1.60373        3.02258        1.34491
C          2.27916        4.20550        1.38436
C          1.64161        5.37174        1.41030
C          2.03953        6.31107        2.27146
C          2.76872        5.90755        3.28722
C          2.12565        5.61843        4.38375
C          0.83237        5.87496        4.47786
C          0.05200        4.81221        4.55780
C          0.58933        3.60037        4.58911
C          0.47106        2.80758        3.53450
C          1.51753        2.00665        3.33935
C          2.08643        2.08460        2.13753
C          3.41849        1.89064        2.07299
C          4.13557        3.03874        2.06378
C          3.45315        4.18760        2.03254
C          3.72305        5.04522        3.01529
C          4.52653        4.67656        4.03167
C          3.88135        4.42704        5.17738
C          2.58171        4.58728        5.09671
C          1.75849        3.54366        5.26417
C          2.27341        2.32489        5.43575
C          2.12528        1.46288        4.39405
C          3.21425        0.77343        4.13268
C          3.88469        0.97583        2.96238
C          5.17774        0.73730        2.92511
C          5.95344        1.80812        2.84835
C          5.31066        2.97827        2.70406
C          5.53748        3.86546        3.69074
C          6.28875        3.42878        4.71624
C          5.57691        3.08636        5.78809
C          4.27550        3.34435        5.84347
C          3.44238        2.32242        6.11830
C          4.03145        1.08851        6.22260
C          3.87476        0.23539        5.15626
C          4.92698       -0.54267        4.81499
C          5.60043       -0.27414        3.68263
C          6.91433       -0.48753        3.72068
C          7.68564        0.57830        3.68490
C          7.13980        1.77435        3.47692
C          7.34605        2.66326        4.45212
C          8.07634        2.21680        5.45850
C          7.40642        1.94495        6.57018
C          6.08108        2.10112        6.54392
C          5.28065        1.04110        6.72571
C          5.83788       -0.15526        6.82665
C          5.69299       -0.99007        5.82010
C          6.69193       -1.81253        5.53693
C          7.32311       -1.53490        4.40601
C          8.62926       -1.78595        4.33150
C          9.41277       -0.70548        4.19517
C          8.86591        0.51433        4.21574
C          9.10385        1.36923        5.18124
C          9.79964        0.87576        6.21197
C          9.14091        0.70245        7.33918
C          7.84654        0.89208        7.28946
C          7.00774       -0.15419        7.45801
C          7.58402       -1.34188        7.59211
C          7.46123       -2.20108        6.58525
C          3.75203        2.56337        4.38307
H          4.06303        1.65198        4.86883
H          3.02252        3.34302        4.45811
H          4.68169        3.05831        4.24723
H          3.32106        2.31207        3.42970
65

C          0.54694        2.67315        2.49184
C          1.27404        3.00508        1.39942
C          2.60437        2.84273        1.54612
C          3.46528        3.89632        1.48296
C          2.88065        5.10848        1.49603
C          3.18544        5.95255        2.47453
C          3.74340        5.41876        3.53392
C          2.94364        5.12242        4.56313
C          1.65073        5.40662        4.43846
C          0.79280        4.40912        4.38485
C          1.31455        3.21551        4.62482
C          1.24838        2.39019        3.60303
C          2.28439        1.60569        3.42435
C          2.97373        1.81473        2.32467
C          4.26788        1.50690        2.35764
C          5.11633        2.53727        2.36108
C          4.58160        3.75012        2.21780
C          4.72025        4.55625        3.28576
C          5.24651        3.94782        4.35307
C          4.48094        3.74241        5.42722
C          3.22833        4.12601        5.38978
C          2.37879        3.12841        5.37040
C          2.96669        1.94902        5.51685
C          2.94047        1.15615        4.47845
C          3.92627        0.30452        4.28735
C          4.64080        0.49924        3.15365
C          5.93546        0.14347        3.05406
C          6.78564        1.21000        3.05500
C          6.22940        2.42556        3.10146
C          6.32385        3.22004        4.15558
C          6.93938        2.74286        5.22877
C          6.17713        2.60648        6.38377
C          4.84427        2.84812        6.33590
C          4.00780        1.80840        6.33920
C          4.56209        0.57731        6.45994
C          4.53533       -0.21052        5.36059
C          5.58260       -0.96350        5.03470
C          6.25331       -0.85431        3.86731
C          7.52923       -1.13818        3.97101
C          8.37287       -0.13339        3.95275
C          7.85402        1.08095        3.83746
C          7.88161        1.82373        4.96035
C          8.50576        1.30357        6.01622
C          7.84541        1.31003        7.19156
C          6.54757        1.59356        7.15892
C          5.70552        0.54355        7.18996
C          6.30621       -0.61555        7.17924
C          6.32477       -1.36894        6.08413
C          7.32459       -2.23572        5.89304
C          7.88958       -2.20152        4.70133
C          9.19454       -2.50704        4.61888
C          9.99705       -1.49329        4.61166
C          9.46329       -0.28887        4.68656
C          9.48057        0.41344        5.80545
C          9.99043       -0.16082        6.86751
C          9.43467        0.03848        8.06120
C          8.15575        0.33830        8.05056
C          7.33385       -0.74644        8.04834
C          7.91925       -1.96589        8.11410
C          8.00646       -2.65702        6.96468
C          5.61553        1.48570        5.10971
H          6.26409        1.11885        5.90475
H          4.52218        1.30072        5.13200
H          5.47163        2.57897        5.15114
H          6.02380        1.07580        4.21859
65

C          3.04051        2.94233        2.49767
C          4.19387        2.81436        1.84560
C          5.08280        2.00623        2.38769
C          6.16190        2.58108        2.89896
C          6.24486        3.90420        2.78875
C          6.05647        4.61004        3.92707
C          5.92231        3.89239        5.05221
C          4.76873        4.00733        5.72477
C          3.82088        4.81458        5.27275
C          2.74743        4.20568        4.78310
C          2.78392        2.88976        4.78486
C          2.82386        2.21305        3.61376
C          3.42842        1.01464        3.64070
C          4.59835        0.90368        3.00144
C          5.48509        0.05878        3.53852
C          6.55018        0.67449        4.11009
C          6.65732        2.02173        3.99814
C          6.55084        2.70882        5.13135
C          6.43964        1.96630        6.24426
C          5.30631        2.10069        6.92207
C          4.38009        2.88611        6.36900
C          3.29229        2.31388        5.87209
C          3.22394        0.98893        5.89841
C          3.34187        0.29891        4.76432
C          3.93287       -0.90668        4.81686
C          5.02442       -1.07366        4.08730
C          5.95165       -1.86705        4.62509
C          6.98440       -1.24712        5.16229
C          7.10938        0.09278        5.16173
C          7.04541        0.75991        6.30420
C          6.94407        0.05087        7.41652
C          5.76380        0.13742        8.04096
C          4.89638        0.95180        7.45999
C          3.75013        0.43143        7.01529
C          3.81611       -0.88259        7.04801
C          3.88850       -1.59970        5.94199
C          4.33065       -2.86209        5.92728
C          5.48633       -2.98713        5.24888
C          6.48068       -3.72240        5.82386
C          7.60979       -3.13232        6.25768
C          7.54038       -1.82114        6.24444
C          7.56046       -1.11580        7.41555
C          7.48973       -1.74137        8.58183
C          6.25874       -1.70045        9.25370
C          5.33985       -0.95564        8.68308
C          4.23593       -1.47274        8.15605
C          4.11057       -2.79993        8.19558
C          4.15674       -3.53447        7.06857
C          4.84194       -4.67364        7.19709
C          6.04229       -4.67113        6.63310
C          7.01720       -5.50839        6.97647
C          8.18014       -4.97294        7.38131
C          8.27978       -3.61000        7.29085
C          8.16710       -2.92585        8.50165
C          7.91444       -3.68284        9.56409
C          6.66548       -3.77027        9.99561
C          5.77862       -2.90017        9.61352
C          4.52871       -3.31850        9.35988
C          4.48921       -4.64278        9.44727
C          4.78875       -5.33581        8.34054
C          6.12936       -3.06932        8.10167
H          5.50209       -3.88440        8.50484
H          5.81320       -3.41292        7.13975
H          6.23244       -2.04415        7.82046
H          7.00812       -3.69385        8.15888
65

C          3.02517        2.96398        2.57069
C          4.11979        2.76464        1.84486
C          5.05404        1.96377        2.36225
C          6.09071        2.57590        2.97169
C          6.20678        3.91285        2.94666
C          6.14872        4.58479        4.10721
C          5.99788        3.84002        5.22893
C          4.85715        3.92896        5.93098
C          3.95092        4.74864        5.43459
C          2.87130        4.20115        4.86403
C          2.70901        2.86741        4.85842
C          2.85975        2.22982        3.68538
C          3.44981        1.04622        3.70554
C          4.60512        0.89138        3.05585
C          5.47779        0.07783        3.67358
C          6.58663        0.64716        4.13311
C          6.60883        1.98286        4.05501
C          6.56935        2.62061        5.22342
C          6.44137        1.91122        6.35025
C          5.27411        2.00569        6.97797
C          4.35998        2.80064        6.45931
C          3.23635        2.26274        5.92950
C          3.20501        0.94840        5.94353
C          3.25404        0.28979        4.79857
C          3.81179       -0.93882        4.88775
C          5.00307       -0.99480        4.32849
C          5.91735       -1.85485        4.80612
C          6.99834       -1.29242        5.34511
C          7.13371        0.05403        5.23127
C          7.05001        0.72862        6.41600
C          6.87312       -0.01981        7.50789
C          5.72121        0.12690        8.14041
C          4.84065        0.90820        7.56992
C          3.78203        0.34703        6.98783
C          3.66838       -0.95774        7.11958
C          3.66102       -1.67058        5.99870
C          4.29329       -2.84011        5.99357
C          5.43651       -2.97334        5.35158
C          6.33550       -3.76014        5.94825
C          7.37643       -3.17424        6.50349
C          7.51208       -1.85486        6.39608
C          7.54880       -1.14718        7.49762
C          7.37063       -1.90112        8.57745
C          6.14989       -1.89677        9.15500
C          5.23598       -0.91829        8.79056
C          4.23678       -1.49607        8.17607
C          4.23266       -2.81846        8.20340
C          4.16459       -3.52474        7.10731
C          4.62603       -4.77449        7.13426
C          5.83561       -4.85162        6.60266
C          6.75549       -5.73130        6.97515
C          7.91215       -5.16349        7.45611
C          7.96923       -3.82961        7.48851
C          7.97296       -3.07177        8.58811
C          7.87843       -3.68247        9.73772
C          6.64420       -4.04257       10.00203
C          5.75982       -3.08971        9.62315
C          4.51068       -3.40797        9.31885
C          4.13945       -4.71649        9.35030
C          4.21872       -5.42921        8.24059
C          6.15665       -5.28152        9.03022
H          5.43760       -4.81295        9.68202
H          5.72666       -6.12057        8.55123
H          6.28109       -4.64604        8.14439
H          7.23300       -5.51972        9.66007
65

C          2.93141        2.90492        2.57672
C          4.11815        2.78493        1.95462
C          5.04444        1.96865        2.56218
C          6.11876        2.55113        3.12262
C          6.18972        3.89433        3.03145
C          6.19604        4.54885        4.18828
C          6.02212        3.82915        5.31629
C          4.87441        3.97767        5.98948
C          3.95406        4.79214        5.42208
C          2.87148        4.24737        4.86579
C          2.78458        2.92570        4.88596
C          2.79431        2.24067        3.73167
C          3.40648        1.04456        3.81257
C          4.55858        0.89640        3.18566
C          5.47492        0.07570        3.63947
C          6.55235        0.60180        4.19222
C          6.64681        1.93530        4.18492
C          6.57979        2.60466        5.34090
C          6.48985        1.88369        6.46109
C          5.29849        1.99987        7.08991
C          4.41037        2.88228        6.56338
C          3.33864        2.35417        5.96083
C          3.29958        1.04612        6.04177
C          3.25406        0.35805        4.92045
C          3.78519       -0.84750        4.86138
C          4.98308       -0.99155        4.23575
C          5.84630       -1.84733        4.73705
C          6.93938       -1.35275        5.27688
C          7.05519       -0.01646        5.25744
C          7.05691        0.67452        6.41263
C          6.86364       -0.10842        7.46415
C          5.70031       -0.07811        8.06932
C          4.83794        0.88756        7.68730
C          3.72820        0.40046        7.10324
C          3.46993       -0.94298        7.10082
C          3.52486       -1.58298        5.95130
C          4.17180       -2.74216        6.01796
C          5.34180       -2.84297        5.42757
C          6.14968       -3.73610        5.95734
C          7.27296       -3.21836        6.49138
C          7.47335       -1.93549        6.33856
C          7.44525       -1.29185        7.48527
C          7.32136       -2.05989        8.54481
C          6.10194       -2.12333        9.04048
C          5.26597       -1.22614        8.52836
C          4.08816       -1.61436        8.05821
C          3.83837       -2.92619        8.15453
C          3.79814       -3.57194        6.98661
C          4.31036       -4.80429        6.87469
C          5.58449       -4.84898        6.48619
C          6.42741       -5.64627        7.13789
C          7.50642       -5.11540        7.71112
C          7.91963       -3.86043        7.48479
C          7.95569       -3.19785        8.58477
C          7.76730       -3.94037        9.68200
C          6.50163       -4.18253        9.98500
C          5.61842       -3.31545        9.45376
C          4.33533       -3.57034        9.23032
C          3.96600       -4.82718        9.13343
C          4.07568       -5.51993        7.97039
C          5.29156       -6.44879        9.67152
H          4.47032       -5.86684        9.98740
H          4.65457       -7.44057        9.36997
H          5.29859       -6.10615        8.64577
H          6.45927       -6.44387        9.68326
65

C          2.93141        2.90492        2.57672
C          4.11815        2.78493        1.95462
C          5.04444        1.96865        2.56218
C          6.11876        2.55113        3.12262
C          6.18972        3.89433        3.03145
C          6.19604        4.54885        4.18828
C          6.02212        3.82915        5.31629
C          4.87441        3.97767        5.98948
C          3.95406        4.79214        5.42208
C          2.87148        4.24737        4.86579
C          2.78458        2.92570        4.88596
C          2.79431        2.24067        3.73167
C          3.40648        1.04456        3.81257
C          4.55858        0.89640        3.18566
C          5.47492        0.07570        3.63947
C          6.55235        0.60180        4.19222
C          6.64681        1.93530        4.18492
C          6.57979        2.60466        5.34090
C          6.48985        1.88369        6.46109
C          5.29849        1.99987        7.08991
C          4.41037        2.88228        6.56338
C          3.33864        2.35417        5.96083
C          3.29958        1.04612        6.04177
C          3.25406        0.35805        4.92045
C          3.78519       -0.84750        4.86138
C          4.98308       -0.99155        4.23575
C          5.84630       -1.84733        4.73705
C          6.93938       -1.35275        5.27688
C          7.05519       -0.01646        5.25744
C          7.05691        0.67452        6.41263
C          6.86364       -0.10842        7.46415
C          5.70031       -0.07811        8.06932
C          4.83794        0.88756        7.68730
C          3.72820        0.40046        7.10324
C          3.46993       -0.94298        7.10082
C          3.52486       -1.58298        5.95130
C          4.17180       -2.74216        6.01796
C          5.34180       -2.84297        5.42757
C          6.14968       -3.73610        5.95734
C          7.27296       -3.21836        6.49138
C          7.47335       -1.93549        6.33856
C          7.44525       -1.29185        7.48527
C          7.32136       -2.05989        8.54481
C          6.10194       -2.12333        9.04048
C          5.26597       -1.22614        8.52836
C          4.08816       -1.61436        8.05821
C          3.83837       -2.92619        8.15453
C          3.79814       -3.57194        6.98661
C          4.31036       -4.80429        6.87469
C          5.58449       -4.84898        6.48619
C          6.42741       -5.64627        7.13789
C          7.50642       -5.11540        7.71112
C          7.91963       -3.86043        7.48479
C          7.95569       -3.19785        8.58477
C          7.76730       -3.94037        9.68200
C          6.50163       -4.18253        9.98500
C          5.61842       -3.31545        9.45376
C          4.33533       -3.57034        9.23032
C          3.96600       -4.82718        9.13343
C          4.07568       -5.51993        7.97039
C          5.16131      -12.14913       11.67673
H          4.34006      -11.56718       11.99261
H          4.52432      -13.14090       11.37518
H          5.16833      -11.80648       10.65098
H          6.32901      -12.14420       11.68847
