9

C     -6.8549659609   -0.6965496673   -0.1357452437
O     -5.4013509338   -0.7085733305   -0.2157157999
H     -7.2011434705    0.2797766957    0.2163610058
H     -7.2000415019   -1.5117606805    0.5072024843
H     -7.1391111458   -0.8668762263   -1.1838204023
C     -4.6903342590   -0.5243105986    0.9194207308
O     -3.5073720154   -0.5110523309    0.9958323226
O     -5.6472036069   -0.3323071715    2.1103909402
O     -5.1204971156   -0.1626566901    3.1568739624
