10

C      0.9624669950   -0.8565607030    0.2483312904
H      0.9283428530   -1.4228372640   -0.7142468060
O      0.7977085401    0.5374236275    0.0045761508
H      1.9743284677   -0.9309758641    0.7185592192
C     -0.4337475790    0.8885053336   -0.5465924560
H     -0.8205174791    0.1747006574   -1.3113656895
H     -0.3533768288    1.9527366679   -0.8828529207
O     -1.3609864393    0.9452456708    0.6133016090
O     -1.8641833270   -0.0648105275    0.9238203618
H      0.1699647975   -1.2234275986    0.9464692411
