10

C      1.8915737000   -0.9544900700    0.1452266600
H      1.1954777800   -1.7730649700   -0.0172160300
O      1.4868662700    0.3391541400    0.1279062000
H      2.9546970000   -1.0488065200    0.3668441500
C      0.1353999000    0.5774042800   -0.2251138500
H     -0.2326206200   -0.0795570700   -1.0494738600
H      0.0755687700    1.6753236700   -0.4458576700
O     -0.6088280500    0.4030838500    0.9820326800
O     -1.0775169200   -0.8021710800    1.0857933700
H     -0.6439398300   -1.2024232300    1.8712873700
10

C      1.8911663984   -0.9543399153    0.1453921018
H      1.1946640393   -1.7725496612   -0.0171653901
O      1.4869066041    0.3394496988    0.1280335309
H      2.9542228127   -1.0492004752    0.3671325300
C      0.1354786742    0.5774927672   -0.2251999982
H     -0.2322748797   -0.0797127449   -1.0494897234
H      0.0753777226    1.6754120389   -0.4461058361
O     -0.6087229473    0.4030229810    0.9819426750
O     -1.0769417954   -0.8024553289    1.0857034024
H     -0.6431986290   -1.2026663605    1.8711857276
10

C      1.8763684788   -0.9489433991    0.1514329054
H      1.1651947056   -1.7536869936   -0.0154737226
O      1.4883533758    0.3501081324    0.1327518456
H      2.9367433910   -1.0636501100    0.3777324817
C      0.1382694688    0.5807184829   -0.2283224332
H     -0.2196639522   -0.0853388928   -1.0500256856
H      0.0683316412    1.6785402310   -0.4551261551
O     -0.6050153259    0.4007418238    0.9786639775
O     -1.0559107335   -0.8127229603    1.0824117491
H     -0.6159930496   -1.2113133144    1.8673840571
10

C      1.8766966846   -0.9491145964    0.1513774375
H      1.1657081872   -1.7540534671   -0.0154750994
O      1.4883489776    0.3499293375    0.1326906159
H      2.9370925381   -1.0635636379    0.3776202206
C      0.1381353443    0.5807562018   -0.2282827611
H     -0.2199317066   -0.0851979238   -1.0500221367
H      0.0683185895    1.6785539561   -0.4549801552
O     -0.6051902530    0.4007882355    0.9787119522
O     -1.0562207200   -0.8125444024    1.0824447611
H     -0.6162796416   -1.2111007033    1.8673441853
10

C      1.8781894968   -0.9505644057    0.1521395015
H      1.1662784830   -1.7550181954   -0.0150616157
O      1.4886616932    0.3497966786    0.1329836729
H      2.9381066899   -1.0661885657    0.3787229774
C      0.1365808211    0.5823390928   -0.2284782045
H     -0.2209802747   -0.0843326554   -1.0501011205
H      0.0660820164    1.6796466924   -0.4549924341
O     -0.6072232589    0.4009218990    0.9785977494
O     -1.0555981996   -0.8123505557    1.0820886783
H     -0.6134194673   -1.2097969848    1.8655298153
10

C      1.8744632108   -0.9497909591    0.1545356572
H      1.1574090813   -1.7496296445   -0.0143399631
O      1.4892600870    0.3529456971    0.1346681410
H      2.9330927396   -1.0723941651    0.3828213083
C      0.1364478257    0.5843767377   -0.2295799445
H     -0.2176439587   -0.0855207655   -1.0503030478
H      0.0624646169    1.6812508150   -0.4577887215
O     -0.6074306524    0.4002330297    0.9774542297
O     -1.0485441394   -0.8154531252    1.0808515945
H     -0.6028408109   -1.2115646201    1.8631097662
10

C      1.8747824627   -0.9498597753    0.1543585763
H      1.1581431185   -1.7500866591   -0.0143960571
O      1.4891545420    0.3525623333    0.1344972705
H      2.9334678926   -1.0718748317    0.3825418445
C      0.1364341292    0.5842727027   -0.2294954282
H     -0.2179246331   -0.0853751987   -1.0502915284
H      0.0628034394    1.6811005985   -0.4575051204
O     -0.6075211971    0.4002843911    0.9774935707
O     -1.0491394172   -0.8152178163    1.0809929005
H     -0.6035223369   -1.2113527446    1.8632329915
10

C      1.8761180291   -0.9501779164    0.1538737239
H      1.1610420165   -1.7519964362   -0.0145961447
O      1.4881480510    0.3498057548    0.1335096529
H      2.9344944062   -1.0697438913    0.3820542670
C      0.1361399421    0.5845024413   -0.2292255096
H     -0.2190621948   -0.0843271647   -1.0502933756
H      0.0645627458    1.6803176039   -0.4558552702
O     -0.6089601178    0.4004293607    0.9770795811
O     -1.0515858581   -0.8145010915    1.0819458709
H     -0.6042190200   -1.2098556606    1.8629362244
10

C      1.8756508116   -0.9500850440    0.1543855333
H      1.1599009487   -1.7514284530   -0.0144896177
O      1.4875356032    0.3488485208    0.1333585835
H      2.9333172227   -1.0703194833    0.3832191436
C      0.1359201694    0.5854056080   -0.2294261802
H     -0.2186390409   -0.0839885136   -1.0503681633
H      0.0646764313    1.6802874242   -0.4556206977
O     -0.6100998746    0.4002897514    0.9762989760
O     -1.0508156878   -0.8151358299    1.0822405460
H     -0.6007685835   -1.2094209806    1.8618308966
10

C      1.8721976827   -0.9493254733    0.1566438539
H      1.1521221219   -1.7468585185   -0.0138859903
O      1.4871831139    0.3501306207    0.1343906025
H      2.9282023882   -1.0752037392    0.3874494287
C      0.1357181768    0.5877403885   -0.2304306065
H     -0.2156479947   -0.0845584257   -1.0505870042
H      0.0624147671    1.6813756957   -0.4573912242
O     -0.6113281417    0.3996442334    0.9745687439
O     -1.0448099191   -0.8181204884    1.0816906746
H     -0.5893741951   -1.2103712930    1.8589805416
10

C      1.8710073573   -0.9491395033    0.1573775495
H      1.1496466834   -1.7455240430   -0.0136674746
O      1.4870110539    0.3506466435    0.1347236691
H      2.9265554247   -1.0767384536    0.3888422677
C      0.1356511278    0.5884665048   -0.2307498369
H     -0.2147279264   -0.0847464342   -1.0506657101
H      0.0617193025    1.6818156126   -0.4579830013
O     -0.6116886789    0.3995083520    0.9739985565
O     -1.0428308930   -0.8190544571    1.0814845693
H     -0.5856654514   -1.2107812219    1.8580684307
10

C      1.8686966746   -0.9489770444    0.1587773830
H      1.1451980363   -1.7434434337   -0.0131941002
O      1.4865124764    0.3516952780    0.1353080692
H      2.9235317246   -1.0795175389    0.3915558377
C      0.1354577438    0.5898437087   -0.2313366552
H     -0.2131810391   -0.0850277225   -1.0508406491
H      0.0605093718    1.6828405064   -0.4590594697
O     -0.6124382668    0.3994273011    0.9728643431
O     -1.0391053798   -0.8207166599    1.0810741312
H     -0.5785033418   -1.2116713948    1.8562801300
10

C      1.8660275556   -0.9492538482    0.1604135707
H      1.1408744696   -1.7422741388   -0.0125267198
O      1.4853196540    0.3525298480    0.1357114692
H      2.9202583039   -1.0821897439    0.3949487927
C      0.1350132349    0.5915847860   -0.2319586613
H     -0.2119573944   -0.0849855596   -1.0511189655
H      0.0596415068    1.6843456894   -0.4599166121
O     -0.6138351169    0.3997372853    0.9712622564
O     -1.0351166013   -0.8223714038    1.0807431121
H     -0.5695476122   -1.2126699145    1.8538707776
10

C      1.8631207853   -0.9509685838    0.1622735940
H      1.1386701523   -1.7448205461   -0.0114197978
O      1.4820590355    0.3520685864    0.1352623575
H      2.9173211180   -1.0833784678    0.3995141488
C      0.1338322279    0.5940023579   -0.2324696144
H     -0.2123796844   -0.0837484384   -1.0516875941
H      0.0604414656    1.6869322671   -0.4595534805
O     -0.6171682176    0.4013085661    0.9685365553
O     -1.0317966024   -0.8233838449    1.0809159939
H     -0.5574222801   -1.2135588965    1.8500568573
10

C      1.8659804717   -0.9533410277    0.1606449945
H      1.1481615325   -1.7533188083   -0.0114158248
O      1.4796800488    0.3484673002    0.1331338979
H      2.9220066646   -1.0771200258    0.3975044877
C      0.1329991188    0.5930488741   -0.2314912914
H     -0.2171088766   -0.0815036236   -1.0519472100
H      0.0648262584    1.6870681703   -0.4561408101
O     -0.6191775434    0.4033713986    0.9684108605
O     -1.0381424129   -0.8200546393    1.0823330734
H     -0.5625472621   -1.2121646184    1.8503968422
10

C      1.8648856572   -0.9532164801    0.1612757645
H      1.1461302245   -1.7522788000   -0.0113155759
O      1.4795871685    0.3487665897    0.1334582137
H      2.9205269243   -1.0783030208    0.3988033562
C      0.1329051084    0.5935515846   -0.2317548048
H     -0.2164478214   -0.0816292396   -1.0521080671
H      0.0643538955    1.6874559599   -0.4565120229
O     -0.6197078386    0.4032092804    0.9678946911
O     -1.0364717423   -0.8207870861    1.0822419999
H     -0.5590835761   -1.2123157880    1.8494454651
10

C      1.8463273532   -0.9564200718    0.1712478018
H      1.1238678182   -1.7499448315   -0.0098758814
O      1.4727637772    0.3480238676    0.1365244154
H      2.8984188062   -1.0892647370    0.4231502907
C      0.1289018008    0.6007771648   -0.2351518545
H     -0.2135080281   -0.0795405860   -1.0569378582
H      0.0642860626    1.6968720379   -0.4564455908
O     -0.6361618339    0.4040722610    0.9564871675
O     -1.0137938704   -0.8285403155    1.0837587964
H     -0.4944238857   -1.2115817895    1.8286717331
10

C      1.8376157930   -0.9591588315    0.1753173099
H      1.1175556140   -1.7528059641   -0.0103363917
O      1.4695777729    0.3455367270    0.1379239970
H      2.8888377088   -1.0910590308    0.4350335513
C      0.1264550573    0.6022313776   -0.2363699876
H     -0.2149642519   -0.0774687987   -1.0605510272
H      0.0668532958    1.7014663553   -0.4538696809
O     -0.6465315747    0.4045820942    0.9508517286
O     -1.0053907027   -0.8303145046    1.0861534630
H     -0.4633307126   -1.2085564243    1.8172760576
10

C      1.8393035700   -0.9606891705    0.1738005879
H      1.1250239139   -1.7587007433   -0.0114851062
O      1.4695911997    0.3430047893    0.1371566300
H      2.8920244496   -1.0856877089    0.4336799048
C      0.1260191357    0.5996865262   -0.2358741466
H     -0.2191368822   -0.0756643918   -1.0619463976
H      0.0705849655    1.7011218666   -0.4510397065
O     -0.6483005585    0.4056653663    0.9512565952
O     -1.0106506244   -0.8274019783    1.0881580995
H     -0.4677811694   -1.2068815556    1.8177225596
10

C      1.8377767529   -0.9614713457    0.1744623170
H      1.1247203284   -1.7600444811   -0.0119806567
O      1.4688363964    0.3423060407    0.1373716218
H      2.8903740210   -1.0854959412    0.4361547064
C      0.1254557045    0.5997380523   -0.2362670707
H     -0.2198796803   -0.0746703376   -1.0631064941
H      0.0715112493    1.7018836128   -0.4502219301
O     -0.6505096535    0.4059527546    0.9500009453
O     -1.0096466285   -0.8275756522    1.0892995398
H     -0.4619604902   -1.2061697025    1.8157160411
10

C      1.8307225619   -0.9645072574    0.1777925557
H      1.1216010797   -1.7642124036   -0.0148759973
O      1.4656724281    0.3400398517    0.1388118659
H      2.8818984880   -1.0863532069    0.4480578159
C      0.1230517264    0.6004731365   -0.2386901357
H     -0.2219398219   -0.0698380446   -1.0687217853
H      0.0743926796    1.7047737069   -0.4473620719
O     -0.6596570227    0.4067538811    0.9440586600
O     -1.0040119457   -0.8294470832    1.0950877553
H     -0.4350521734   -1.2032295806    1.8072703573
10

C      1.8242709557   -0.9667379577    0.1811422959
H      1.1171478340   -1.7660228231   -0.0184908863
O      1.4630440599    0.3389231048    0.1406728357
H      2.8731366275   -1.0889366900    0.4596879020
C      0.1210155563    0.6015829314   -0.2416833610
H     -0.2224608179   -0.0648424336   -1.0743970543
H      0.0755783358    1.7066057888   -0.4456265886
O     -0.6669509746    0.4069149951    0.9383502215
O     -0.9978509873   -0.8322687192    1.1013116848
H     -0.4102525895   -1.2007651966    1.8004619703
10

C      1.8195454774   -0.9676612302    0.1840425062
H      1.1118277925   -1.7647709121   -0.0224535367
O      1.4613778289    0.3393325304    0.1427726867
H      2.8654310439   -1.0931474896    0.4692056289
C      0.1197193339    0.6029407614   -0.2448981884
H     -0.2211726219   -0.0603567008   -1.0792754219
H      0.0746007096    1.7068649479   -0.4455929664
O     -0.6708366057    0.4064219367    0.9338337372
O     -0.9920682225   -0.8357342105    1.1069130934
H     -0.3917467361   -1.1994366331    1.7968814810
10

C      1.8189930131   -0.9670486903    0.1848638618
H      1.1090752719   -1.7620771038   -0.0239890167
O      1.4612935310    0.3405525204    0.1437226801
H      2.8633878519   -1.0959017188    0.4711514478
C      0.1197474202    0.6036473845   -0.2461160183
H     -0.2194354370   -0.0592262960   -1.0803245457
H      0.0726607514    1.7058715212   -0.4468453230
O     -0.6697521715    0.4058641166    0.9330829058
O     -0.9900714149   -0.8373981664    1.1080720517
H     -0.3892208161   -1.1998305673    1.7978109765
10

C      1.8225699081   -0.9651680342    0.1834424557
H      1.1095900908   -1.7587992079   -0.0228952825
O      1.4628883601    0.3422372769    0.1432826109
H      2.8672714253   -1.0964683343    0.4654663803
C      0.1210292755    0.6035511414   -0.2452551625
H     -0.2177886744   -0.0614095494   -1.0776562406
H      0.0704477491    1.7039809771   -0.4489864020
O     -0.6643681413    0.4054370918    0.9360370074
O     -0.9924280311   -0.8370461007    1.1050558840
H     -0.4025339621   -1.2018622608    1.8029377694
10

C      1.8205985911   -0.9659878202    0.1844770240
H      1.1086032944   -1.7599154464   -0.0236259861
O      1.4615514599    0.3415045416    0.1438569911
H      2.8649483223   -1.0968388247    0.4686965852
C      0.1202894720    0.6035851671   -0.2455742641
H     -0.2183301058   -0.0603664266   -1.0788692916
H      0.0708940683    1.7045563241   -0.4480066725
O     -0.6665379945    0.4055205946    0.9345413870
O     -0.9903093365   -0.8371011501    1.1059070813
H     -0.3950297711   -1.2005039594    1.8000261656
10

C      1.8104054080   -0.9698886480    0.1905002596
H      1.1026343405   -1.7639279713   -0.0305662879
O      1.4539842721    0.3384535327    0.1484410152
H      2.8513331142   -1.1008798984    0.4876269133
C      0.1162066325    0.6030361509   -0.2483665228
H     -0.2203013058   -0.0527740962   -1.0870668188
H      0.0711282493    1.7051982259   -0.4433171493
O     -0.6759849247    0.4052860199    0.9262872930
O     -0.9778573862   -0.8377423256    1.1119986358
H     -0.3548703998   -1.1923079900    1.7858916819
10

C      1.8105909711   -0.9697763882    0.1910253791
H      1.1026859274   -1.7631567504   -0.0333829497
O      1.4530016006    0.3386808989    0.1498585650
H      2.8505340789   -1.1021050203    0.4893428513
C      0.1158630545    0.6019377389   -0.2490145617
H     -0.2202585608   -0.0508648181   -1.0886952782
H      0.0697050428    1.7031203013   -0.4433474010
O     -0.6744570427    0.4050910173    0.9260638340
O     -0.9769899323   -0.8372989550    1.1128405237
H     -0.3539971394   -1.1911750246    1.7867380575
10

C      1.8109342988   -0.9695147337    0.1911510622
H      1.1024551575   -1.7623070166   -0.0343803233
O      1.4528316851    0.3389962298    0.1503728424
H      2.8504789456   -1.1028891156    0.4895678987
C      0.1158715158    0.6016657266   -0.2492174428
H     -0.2198859515   -0.0504448733   -1.0890829177
H      0.0688562172    1.7023226622   -0.4437264358
O     -0.6735338780    0.4049589071    0.9262133175
O     -0.9767379866   -0.8372912417    1.1129242690
H     -0.3545920039   -1.1910435448    1.7876067498
10

C      1.8112516677   -0.9692864712    0.1913394202
H      1.1020883793   -1.7612916471   -0.0357496540
O      1.4526377519    0.3391889831    0.1509338453
H      2.8503509910   -1.1040073575    0.4900961284
C      0.1158600011    0.6015341988   -0.2494290836
H     -0.2192861772   -0.0501159455   -1.0897174090
H      0.0680013444    1.7019175651   -0.4442498099
O     -0.6732674638    0.4048647006    0.9262651390
O     -0.9764559478   -0.8374644593    1.1133509927
H     -0.3545025465   -1.1908865669    1.7885894509
10

C      1.8116086142   -0.9690336820    0.1926521412
H      1.1007839558   -1.7581215049   -0.0428206082
O      1.4508500551    0.3390233593    0.1536793724
H      2.8487005372   -1.1087838421    0.4945326082
C      0.1152899012    0.6007697802   -0.2504054897
H     -0.2172193405   -0.0479909164   -1.0936541409
H      0.0650574885    1.7009353189   -0.4456820808
O     -0.6745003152    0.4046882287    0.9255321539
O     -0.9745711945   -0.8380051603    1.1164114866
H     -0.3493217017   -1.1890285814    1.7911835774
10

C      1.8113756520   -0.9692361619    0.1935237698
H      1.1003104882   -1.7570394311   -0.0470115472
O      1.4495157031    0.3384550545    0.1552154387
H      2.8474192580   -1.1112049464    0.4977212728
C      0.1147770926    0.6002972161   -0.2508897085
H     -0.2163633760   -0.0466494732   -1.0961816431
H      0.0639129480    1.7008358214   -0.4460609175
O     -0.6762962686    0.4047148511    0.9247406410
O     -0.9733760635   -0.8381832257    1.1185501706
H     -0.3445974339   -1.1875367048    1.7918215434
10

C      1.8100265873   -0.9703645437    0.1947059469
H      1.1005770898   -1.7578739763   -0.0519055237
O      1.4473505322    0.3366033552    0.1567431910
H      2.8452691871   -1.1129181581    0.5027638479
C      0.1137612802    0.5997052256   -0.2511547557
H     -0.2162940372   -0.0449743478   -1.0995628661
H      0.0641542645    1.7020206540   -0.4453087368
O     -0.6811858691    0.4050900263    0.9229249466
O     -0.9718878328   -0.8380351655    1.1218966656
H     -0.3350932020   -1.1848000697    1.7903263044
10

C      1.8084912350   -0.9717705102    0.1948799323
H      1.1021276631   -1.7611383336   -0.0525604921
O      1.4464037455    0.3346491407    0.1564921424
H      2.8443947640   -1.1112166624    0.5048216670
C      0.1131411489    0.5994999339   -0.2505106756
H     -0.2176480346   -0.0449125013   -1.1002800520
H      0.0666556422    1.7040603461   -0.4435069903
O     -0.6858932337    0.4057129624    0.9215068930
O     -0.9719259241   -0.8374274575    1.1234400831
H     -0.3290690065   -1.1830039182    1.7871465121
10

C      1.8084931945   -0.9717586806    0.1951076511
H      1.1019240970   -1.7606295086   -0.0538121682
O      1.4461100230    0.3346299175    0.1569830028
H      2.8440390911   -1.1120174003    0.5055796404
C      0.1130437954    0.5993895188   -0.2506165516
H     -0.2172761730   -0.0446086692   -1.1008314188
H      0.0661768506    1.7038884417   -0.4437491718
O     -0.6861901964    0.4056876660    0.9213137607
O     -0.9715437281   -0.8375366077    1.1239605826
H     -0.3280989542   -1.1825916777    1.7874936929
10

C      1.8085063243   -0.9718074728    0.1955808028
H      1.1017493636   -1.7595336611   -0.0573201365
O      1.4454341379    0.3345126649    0.1582949898
H      2.8432004410   -1.1138415362    0.5073455339
C      0.1128349973    0.5990320639   -0.2506312802
H     -0.2163485356   -0.0440453124   -1.1019511953
H      0.0651582765    1.7034571136   -0.4443460443
O     -0.6872709433    0.4057174773    0.9207337808
O     -0.9707165695   -0.8377527377    1.1253305093
H     -0.3258694922   -1.1812855994    1.7883920597
10

C      1.8083867178   -0.9719816501    0.1961670129
H      1.1017398142   -1.7582210521   -0.0624995583
O      1.4445708179    0.3343231340    0.1602105972
H      2.8419291923   -1.1161683363    0.5097028040
C      0.1125805572    0.5985262432   -0.2503575775
H     -0.2150420136   -0.0435336933   -1.1030859508
H      0.0639622250    1.7028703770   -0.4451557352
O     -0.6891745737    0.4058361309    0.9197308732
O     -0.9695388377   -0.8380593601    1.1272446536
H     -0.3227358994   -1.1791387932    1.7894719008
10

C      1.8081004903   -0.9724752213    0.1965593398
H      1.1028175757   -1.7569197824   -0.0711540898
O      1.4438122094    0.3340905680    0.1633041538
H      2.8401642092   -1.1186827647    0.5121919711
C      0.1124654942    0.5976816144   -0.2488073332
H     -0.2130497853   -0.0439175347   -1.1029724247
H      0.0629284258    1.7018308262   -0.4464505196
O     -0.6929061812    0.4063080352    0.9178417192
O     -0.9681223866   -0.8384534129    1.1298523347
H     -0.3195320515   -1.1750093277    1.7910638688
10

C      1.8074720881   -0.9732500912    0.1959470113
H      1.1052404027   -1.7576944021   -0.0773651567
O      1.4442997673    0.3339871401    0.1653685514
H      2.8392411742   -1.1181164731    0.5119157462
C      0.1128340523    0.5971802668   -0.2459335290
H     -0.2120288701   -0.0461821878   -1.0996188414
H      0.0639356571    1.7011170299   -0.4471996890
O     -0.6967268256    0.4070867555    0.9159895991
O     -0.9677825034   -0.8385922963    1.1307858642
H     -0.3198069428   -1.1710827419    1.7915394638
10

C      1.8074207458   -0.9733012927    0.1959954755
H      1.1053591904   -1.7576067267   -0.0782118970
O      1.4441899130    0.3339321092    0.1656689505
H      2.8390754557   -1.1183150286    0.5122225171
C      0.1128052655    0.5971335542   -0.2458680479
H     -0.2118975907   -0.0461471388   -1.0996907740
H      0.0638692731    1.7010211414   -0.4473514165
O     -0.6970120256    0.4071038530    0.9158707025
O     -0.9676590341   -0.8386094057    1.1310269194
H     -0.3194731931   -1.1707580654    1.7917665903
10

C      1.8038655671   -0.9756541200    0.1980186368
H      1.1097429906   -1.7552544353   -0.1095557183
O      1.4396914794    0.3316922139    0.1770325739
H      2.8316167015   -1.1246637854    0.5246294472
C      0.1115153740    0.5962365158   -0.2438399681
H     -0.2077606039   -0.0447936312   -1.1017874163
H      0.0624337022    1.6976315776   -0.4530954281
O     -0.7074862387    0.4073123079    0.9113480826
O     -0.9619936043   -0.8392973928    1.1393323169
H     -0.3049473681   -1.1587562505    1.7993464934
10

C      1.8015632110   -0.9769487835    0.1986393899
H      1.1124662830   -1.7553433630   -0.1231727245
O      1.4377453969    0.3305573070    0.1819987687
H      2.8282735420   -1.1258337578    0.5298269193
C      0.1109698659    0.5964088238   -0.2430618035
H     -0.2068727918   -0.0444826968   -1.1017358652
H      0.0629744631    1.6961388472   -0.4558985862
O     -0.7114214716    0.4072577333    0.9098744475
O     -0.9595908931   -0.8393744235    1.1420223484
H     -0.2994296054   -1.1539266867    1.8029361256
10

C      1.7989213275   -0.9780630753    0.1989777549
H      1.1142233874   -1.7569741838   -0.1303944056
O      1.4364735097    0.3297409492    0.1847708869
H      2.8257194002   -1.1247355605    0.5332122968
C      0.1105571901    0.5973585950   -0.2429390687
H     -0.2074738324   -0.0444726055   -1.1007990632
H      0.0646175938    1.6955993637   -0.4576126468
O     -0.7131912976    0.4070428636    0.9093371730
O     -0.9576518426   -0.8393742660    1.1424935050
H     -0.2955174360   -1.1516690804    1.8043825878
10

C      1.7983246157   -0.9781535736    0.1989593307
H      1.1139739468   -1.7579643649   -0.1285849295
O      1.4365351528    0.3297533717    0.1842057881
H      2.8256271685   -1.1235530556    0.5330152621
C      0.1105317610    0.5978558907   -0.2432658052
H     -0.2082678514   -0.0446028229   -1.1003026714
H      0.0653500184    1.6960228948   -0.4573614537
O     -0.7124611800    0.4069652880    0.9096803669
O     -0.9574655006   -0.8393620463    1.1415774781
H     -0.2954701311   -1.1525085818    1.8035056538
10

C      1.7980613568   -0.9781079700    0.1989572235
H      1.1134483826   -1.7587300790   -0.1256930193
O      1.4366885945    0.3298409707    0.1832368384
H      2.8258160468   -1.1225626166    0.5324594343
C      0.1105239439    0.5982169008   -0.2436779339
H     -0.2090365317   -0.0447432415   -1.0999935176
H      0.0658321839    1.6966229459   -0.4568163018
O     -0.7114387192    0.4069505678    0.9101054772
O     -0.9574325956   -0.8393650207    1.1406196239
H     -0.2957846619   -1.1536694575    1.8022311953
10

C      1.7975740033   -0.9782514811    0.1991662070
H      1.1132881073   -1.7595845839   -0.1238581813
O      1.4363680644    0.3296535369    0.1826521256
H      2.8256020838   -1.1216741621    0.5326235618
C      0.1103429257    0.5985802617   -0.2442485562
H     -0.2100407364   -0.0449880918   -1.0997574001
H      0.0663556080    1.6974458403   -0.4564001068
O     -0.7104483281    0.4071136328    0.9105763975
O     -0.9568996047   -0.8393701832    1.1398925046
H     -0.2954641232   -1.1544717696    1.8007824679
10

C      1.7955973573   -0.9793575012    0.2002320624
H      1.1147833172   -1.7610715373   -0.1278448719
O      1.4340390344    0.3283015523    0.1842199836
H      2.8232023946   -1.1210679348    0.5363441408
C      0.1094374162    0.5991649581   -0.2452949266
H     -0.2118660264   -0.0455171231   -1.0996450476
H      0.0673545431    1.6988444430   -0.4568639863
O     -0.7103010439    0.4078137584    0.9108985914
O     -0.9540551222   -0.8394090600    1.1402632093
H     -0.2915138703   -1.1532485553    1.7991198649
10

C      1.7937177422   -0.9809744433    0.2014690781
H      1.1185668141   -1.7609138393   -0.1416657274
O      1.4306602548    0.3262809193    0.1891162463
H      2.8196029426   -1.1228707333    0.5426240943
C      0.1083354401    0.5989654627   -0.2453819689
H     -0.2120878879   -0.0459042645   -1.1001273620
H      0.0675016518    1.6987846712   -0.4591606689
O     -0.7131016449    0.4087301894    0.9101493225
O     -0.9506400261   -0.8393566903    1.1433617250
H     -0.2858772866   -1.1482882719    1.8010442811
10

C      1.7928818478   -0.9820629335    0.2021593685
H      1.1217560256   -1.7596303672   -0.1543007943
O      1.4284108424    0.3249056833    0.1934792352
H      2.8170706747   -1.1253985229    0.5472216777
C      0.1076718257    0.5983287226   -0.2448445609
H     -0.2110795181   -0.0460284433   -1.1007844241
H      0.0669942203    1.6978128280   -0.4612037915
O     -0.7164491290    0.4092601217    0.9089571318
O     -0.9486797015   -0.8392479297    1.1466434137
H     -0.2818990880   -1.1434861590    1.8041017639
10

C      1.7931757106   -0.9820857233    0.2020678426
H      1.1223581589   -1.7589773485   -0.1567638074
O      1.4283409021    0.3248364081    0.1942473153
H      2.8170305624   -1.1261283752    0.5475140007
C      0.1076959455    0.5979935577   -0.2445217623
H     -0.2104605676   -0.0461097527   -1.1008864412
H      0.0666809216    1.6972691682   -0.4615366906
O     -0.7172676075    0.4093102617    0.9086137533
O     -0.9488773217   -0.8391457151    1.1473723514
H     -0.2819987044   -1.1425094810    1.8053224583
10

C      1.7932808079   -0.9822129315    0.2020731602
H      1.1231025115   -1.7583921118   -0.1597338586
O      1.4280544165    0.3246446129    0.1952041136
H      2.8167244370   -1.1268824645    0.5481947125
C      0.1076341981    0.5976886222   -0.2442781080
H     -0.2099395706   -0.0462417568   -1.1009987698
H      0.0664342580    1.6968127787   -0.4618876807
O     -0.7181839980    0.4094088816    0.9082258377
O     -0.9488081195   -0.8390440699    1.1482030594
H     -0.2816209410   -1.1413285610    1.8064265538
10

C      1.7934839390   -0.9822979555    0.2019885646
H      1.1239405273   -1.7578782145   -0.1624930046
O      1.4278435413    0.3244771785    0.1960285283
H      2.8165982913   -1.1274438290    0.5486345368
C      0.1075938952    0.5973682185   -0.2440985785
H     -0.2095158419   -0.0466085848   -1.1009256019
H      0.0662958143    1.6963910137   -0.4620689390
O     -0.7189257916    0.4095722767    0.9079215822
O     -0.9489142075   -0.8388523727    1.1488624821
H     -0.2817221674   -1.1402747308    1.8075794500
10

C      1.7940495090   -0.9827845418    0.2017167090
H      1.1276419073   -1.7557545309   -0.1747488096
O      1.4267053874    0.3236271310    0.1996889406
H      2.8156600052   -1.1298348146    0.5509865624
C      0.1072945637    0.5960274900   -0.2435266796
H     -0.2078121898   -0.0484537303   -1.1005188974
H      0.0658823355    1.6947343437   -0.4625192907
O     -0.7223361127    0.4103214359    0.9064019010
O     -0.9490580702   -0.8379690951    1.1517661189
H     -0.2813493354   -1.1354606881    1.8121824656
10

C      1.7942764259   -0.9831181896    0.2014459134
H      1.1301803749   -1.7548095181   -0.1820279655
O      1.4259494189    0.3230289969    0.2017101917
H      2.8151010163   -1.1307634457    0.5523499663
C      0.1070350908    0.5952519499   -0.2435221520
H     -0.2071686227   -0.0503178572   -1.0997758267
H      0.0660857256    1.6940011348   -0.4621224576
O     -0.7242050206    0.4109634822    0.9054967839
O     -0.9492072096   -0.8371922450    1.1531853244
H     -0.2813691995   -1.1325913082    1.8146892421
10

C      1.7937625895   -0.9839379138    0.2009273954
H      1.1350163607   -1.7543090097   -0.1943877096
O      1.4241562673    0.3217036882    0.2047810746
H      2.8134045995   -1.1310574979    0.5553952995
C      0.1061985365    0.5941575211   -0.2447280060
H     -0.2071430966   -0.0556633665   -1.0972223725
H      0.0677925911    1.6937305176   -0.4591689261
O     -0.7273400766    0.4125219420    0.9035426876
O     -0.9489563895   -0.8352707854    1.1548481722
H     -0.2802133818   -1.1274220957    1.8174414049
10

C      1.7931203437   -0.9837820646    0.2009712183
H      1.1336634645   -1.7557076228   -0.1895527579
O      1.4244164068    0.3220012795    0.2031418820
H      2.8134589624   -1.1294442828    0.5547515455
C      0.1061541647    0.5948088956   -0.2456005063
H     -0.2082581398   -0.0561804095   -1.0966783176
H      0.0686335028    1.6948893587   -0.4578164918
O     -0.7258949633    0.4124476563    0.9039662692
O     -0.9486740038   -0.8353445986    1.1532644255
H     -0.2799417380   -1.1292352118    1.8149817531
10

C      1.7929275089   -0.9838006018    0.2010742095
H      1.1334569232   -1.7555126635   -0.1898867754
O      1.4243050415    0.3220307149    0.2033215490
H      2.8131292960   -1.1297629668    0.5551154933
C      0.1061249252    0.5948123961   -0.2456050650
H     -0.2080283132   -0.0560751591   -1.0969058401
H      0.0685157917    1.6948819280   -0.4578437481
O     -0.7261765730    0.4123101752    0.9037474055
O     -0.9484153890   -0.8354586781    1.1535323659
H     -0.2791612112   -1.1289721448    1.8148794254
10

C      1.7922452268   -0.9839351339    0.2015113687
H      1.1327284953   -1.7550628475   -0.1906409767
O      1.4239312551    0.3220275140    0.2038248084
H      2.8119989417   -1.1307080104    0.5563874157
C      0.1059763965    0.5948893731   -0.2456024395
H     -0.2074736725   -0.0555283802   -1.0976045224
H      0.0681154185    1.6949009219   -0.4579855777
O     -0.7270944764    0.4119660348    0.9030629324
O     -0.9474128969   -0.8358262015    1.1542447548
H     -0.2763366881   -1.1282702702    1.8142312563
10

C      1.7929661587   -0.9837292454    0.2009264715
H      1.1335432988   -1.7553784907   -0.1902021599
O      1.4242756684    0.3221581140    0.2033940234
H      2.8132102700   -1.1298421023    0.5550148523
C      0.1061932100    0.5947643287   -0.2456164389
H     -0.2077799427   -0.0561918754   -1.0971168512
H      0.0685918285    1.6948561824   -0.4577756145
O     -0.7261857480    0.4120652091    0.9037044683
O     -0.9486859023   -0.8355036056    1.1538693640
H     -0.2794508414   -1.1287455148    1.8152309049
